/*--------------------------------*- C++ -*----------------------------------*\
  =========                 |
  \\      /  F ield         | OpenFOAM: The Open Source CFD Toolbox
   \\    /   O peration     | Website:  https://openfoam.org
    \\  /    A nd           | Version:  9
     \\/     M anipulation  |
\*---------------------------------------------------------------------------*/
FoamFile
{
    format      ascii;
    class       dictionary;
    location    "constant";
    object      thermophysicalProperties;
}
// * * * * * * * * * * * * * * * * * * * * * * * * * * * * * * * * * * * * * //

#include        "include/constantsValues"

thermoType
{
    type            hePsiThermo;
    mixture         pureMixture;
    transport       const;   // valutare se farla in f(p) o f(T)
    thermo          hConst;
    equationOfState perfectGas;
    specie          specie;
    energy          sensibleEnthalpy;  //sensibleInternalEnergy
    
    
    
}

/*mixture*/
/*{*/
/*    specie*/
/*    {*/
/*        molWeight   28.9;*/
/*    }*/
/*    thermodynamics*/
/*    {*/
/*        Cp          1005;*/
/*        Hf          0;*/
/*    }*/
/*    transport*/
/*    {*/
/*        mu          1.82e-05;*/
/*        Pr          0.71;*/
/*    }*/
/*}*/



//ARGON  

mixture
{
    specie
    {
        molWeight   $molWeight_val; //28.9
    }
    thermodynamics
    {
        Cp          $Cp_val;  //1005
        Hf          $Hf_val;
    }
    transport
    {
        mu          $mu_val;
        Pr          $Pr_val;   //0.71 air
    }
    
}



// ************************************************************************* //
