/*--------------------------------*- C++ -*----------------------------------*\
  =========                 |
  \\      /  F ield         | OpenFOAM: The Open Source CFD Toolbox
   \\    /   O peration     | Website:  https://openfoam.org
    \\  /    A nd           | Version:  9
     \\/     M anipulation  |
\*---------------------------------------------------------------------------*/
FoamFile
{
    format      ascii;
    class       volScalarField;
    object      omega;
}
// * * * * * * * * * * * * * * * * * * * * * * * * * * * * * * * * * * * * * //

#include        "include/initialConditions"

dimensions      [0 0 -1 0 0 0 0];

internalField   uniform $turbulentOmega;

boundaryField
{


    inlet
    {
        type  fixedValue;
        value $internalField;
    }

    "outlet.*"
    {
        type            inletOutlet;
        inletValue      $internalField;
        value           $internalField;
    }

    "wall.*"
    {
        type            omegaWallFunction;
        value           $internalField;
    }

    "symmet.*"
    {
        type            symmetry;
    }
    
}


// ************************************************************************* //
