/*--------------------------------*- C++ -*----------------------------------*\
  =========                 |
  \\      /  F ield         | OpenFOAM: The Open Source CFD Toolbox
   \\    /   O peration     | Website:  https://openfoam.org
    \\  /    A nd           | Version:  9
     \\/     M anipulation  |
\*---------------------------------------------------------------------------*/
FoamFile
{
    format      ascii;
    class       dictionary;
    object      fvSolution;
}
// * * * * * * * * * * * * * * * * * * * * * * * * * * * * * * * * * * * * * //

solvers
{
    p
    {
        solver          GAMG;
        smoother        GaussSeidel;
        tolerance       1e-7;
        relTol          0.01;
    }

    Phi
    {
        $p;
    }

    U
    {
        solver          smoothSolver;
        smoother        GaussSeidel;
        tolerance       1e-8;
        relTol          0.01;
        nSweeps         1;
    }

    "(k|epsilon|omega)"
    {
        solver          smoothSolver;
        smoother        GaussSeidel;
        tolerance       1e-8;
        relTol          0.1;
        nSweeps         1;
    }
}

SIMPLE
{
    nNonOrthogonalCorrectors 3;
    consistent yes;
    
    pRefCell 0;
    pRefValue 0;
}

/*potentialFlow*/
/*{*/
/*    nNonOrthogonalCorrectors 10;*/
/*}*/

relaxationFactors
{

// SIMPLE
/*    fields*/
/*    {*/
/*        p               0.3;*/
/*        rho             0.05;*/
/*    }*/
/*    equations*/
/*    {*/
/*        U               0.7;*/
/*        "(k|epsilon)"   0.7;*/
/*        h               0.5;*/
/*    }*/

// SIMPLEC

    fields
    {
        p               0.7;
        rho             0.01;
    }
    equations
    {
        U               0.3;
        h               0.3;
        k               0.3;
        epsilon         0.3;
    }
}

cache
{
    grad(U);
}

// ************************************************************************* //
