/*--------------------------------*- C++ -*----------------------------------*\
  =========                 |
  \\      /  F ield         | OpenFOAM: The Open Source CFD Toolbox
   \\    /   O peration     | Website:  https://openfoam.org
    \\  /    A nd           | Version:  9
     \\/     M anipulation  |
\*---------------------------------------------------------------------------*/
FoamFile
{
    format      ascii;
    class       volScalarField;
    object      p;
}
// * * * * * * * * * * * * * * * * * * * * * * * * * * * * * * * * * * * * * //

#include        "include/initialConditions"

dimensions      [1 -1 -2 0 0 0 0];

internalField   uniform $pressure_out;

boundaryField
{


    inlet
    {
    
/*        type            fixedValue;*/
/*        value           uniform $pressure_in;*/

/*        // condizioni RUGGERO Pressione Ingresso*/
        type            uniformTotalPressure;
        p0              table  (  (0 $pressure_out)  (500 $pressure_in) );
        gamma    $gamma;
        psi      thermo:psi;
        value    uniform $pressure_out;

// Caso in cui impostiamo la U = 

/*        type            zeroGradient;*/
/*        refValue        uniform $pressure_out;*/
/*        refGradient     uniform 0;*/
        
        


    }

    "outle.*"
    {
        type            fixedValue;
        value           uniform $pressure_out;

/*        type            totalPressure;*/
/*        p0              $internalField;*/
    }

    "wall.*"
    {
        type            zeroGradient;
    }

    "symmet.*"
    {
        type            symmetry;
    }
    
}

// ************************************************************************* //
