FoamFile
{
	version     2.0;
	format      ascii;
	class       dictionary;
	location    "system";
	object      blockMeshDict;
}

convertToMeters   1;
scale             1;
blocks
(
	hex   (0 1 2 3 4 5 6 7) fluid ( SCRIPT-GRID) simpleGrading (1 1 1)
);

boundary
(
	allBoundary
	{
		type   patch;
		faces
		(
			    (1 5 4 0)
			    (3 7 6 2)
			    (0 4 7 3)
			    (2 6 5 1)
			    (0 3 2 1)
			    (4 5 6 7)
		);

	}

);

edges
(
);

vertices
(
SCRIPT-BBOX
);

