/*--------------------------------*- C++ -*----------------------------------*\
  =========                 |
  \\      /  F ield         | OpenFOAM: The Open Source CFD Toolbox
   \\    /   O peration     | Website:  https://openfoam.org
    \\  /    A nd           | Version:  7
     \\/     M anipulation  |
\*---------------------------------------------------------------------------*/
FoamFile
{
    version     2.0;
    format      ascii;
    class       dictionary;
    location    "system";
    object      controlDict;
}
// * * * * * * * * * * * * * * * * * * * * * * * * * * * * * * * * * * * * * //

application   SNAPPY;

startFrom   latestTime;
startTime   0;
stopAt   endTime;
endTime   3000;
deltaT   1.0000000000000000;
writeControl   timeStep;
//writeControl  adjustableRunTime;
writeInterval   10.0;
purgeWrite   3;
//custom CFD FEA SERVICE -> tiene solo iterazioni "multiple"
keepInterval    0;
writeFormat   binary;
writeCompression   off;
writePrecision   9;
timeFormat   general;
timePrecision   6;
runTimeModifiable   true;

// CFD FEA CUSTOM options
splitMesh largest;  //Estrazione della zona fluida piu' grande
//splitMesh false;  // true/false per dividere la mesh

baffleMesh false;
//scaleFactor 0.001;
