FoamFile
{
	version     2.0;
	format      ascii;
	class       dictionary;
	location    "system";
	object      fvSchemes;
}

ddtSchemes
{
	default   steadyState;
}

divSchemes
{
	default   none;
	turbulence   bounded Gauss upwind;
	div(phi,k)   $turbulence;
	div(phi,epsilon)   $turbulence;
	div(phi,omega)   $turbulence;
	div(phi,nuTilda)   $turbulence;
	div((nuEff*dev2(T(grad(U)))))   Gauss linear;
}

gradSchemes
{
	default   Gauss linear;
	grad(U)   cellLimited Gauss linear 1;
}

interpolationSchemes
{
	default   linear;
}

laplacianSchemes
{
}

snGradSchemes
{
}

wallDist
{
	method   meshWave;
}

