FoamFile
{
	version     2.0;
	format      ascii;
	class       dictionary;
	location    "system";
	object      fvSolution;
}

PIMPLE
{
    nOuterCorrectors 1;
}

