/*--------------------------------*- C++ -*----------------------------------*\
  =========                 |
  \\      /  F ield         | OpenFOAM: The Open Source CFD Toolbox
   \\    /   O peration     | Website:  https://openfoam.org
    \\  /    A nd           | Version:  8
     \\/     M anipulation  |
\*---------------------------------------------------------------------------*/
FoamFile
{
    version     2.0;
    format      ascii;
    class       dictionary;
    object      topoSetDict;
}
// * * * * * * * * * * * * * * * * * * * * * * * * * * * * * * * * * * * * * //

actions
(
    // Get both sides of ami
    // ~~~~~~~~~~~~~~~~~~~~~

    // Create faceZone for patch couple1
    {
        name    couple1FaceSet;
        type    faceSet;
        action  new;
        source  patchToFace;
        sourceInfo
        {
            name    overimpeller;
        }
    }
    {
        name    overimpeller-zone;
        type    faceZoneSet;
        action  new;
        source  setToFaceZone;
        sourceInfo
        {
            faceSet couple1FaceSet;
        }
    }

    // Create faceZone for patch couple2
    {
        name    couple2FaceSet;
        type    faceSet;
        action  new;
        source  patchToFace;
        sourceInfo
        {
            name    overtreno;
        }
    }
    {
        name    overtreno-zone;
        type    faceZoneSet;
        action  new;
        source  setToFaceZone;
        sourceInfo
        {
            faceSet couple2FaceSet;
        }
    }
);

// ************************************************************************* //
